<?xml version="1.0" encoding="UTF-8"?>



<routes xmlns:xsi="http://www.w3.org/2001/XMLSchema-instance" xsi:noNamespaceSchemaLocation="http://sumo.dlr.de/xsd/routes_file.xsd">
    <!-- Vehicles, persons and containers (sorted by depart) -->
    <flow id="f_0" begin="0.00" from="B1B2" to="B2B3" end="50.00" vehsPerHour="1080"/>
    <flow id="f_1" begin="0.00" from="A2B2" to="B2C2" end="50.00" vehsPerHour="720"/>
    <flow id="f_2" begin="0.00" from="C2B2" to="B2A2" end="50.00" vehsPerHour="900"/>
    <flow id="f_3" begin="0.00" from="B3B2" to="B2B1" end="50.00" vehsPerHour="540"/>
</routes>
