<?xml version="1.0" encoding="UTF-8"?>


<net version="1.20" junctionCornerDetail="5" limitTurnSpeed="5.50" xmlns:xsi="http://www.w3.org/2001/XMLSchema-instance" xsi:noNamespaceSchemaLocation="http://sumo.dlr.de/xsd/net_file.xsd">

    <location netOffset="0.00,0.00" convBoundary="0.00,100.00,200.00,300.00" origBoundary="0.00,0.00,400.00,400.00" projParameter="!"/>

    <edge id=":A2_0" function="internal">
        <lane id=":A2_0_0" index="0" speed="3.65" length="4.67" shape="0.00,201.60 -1.20,200.80 -1.60,200.00 -1.20,199.20 0.00,198.40"/>
    </edge>
    <edge id=":B1_0" function="internal">
        <lane id=":B1_0_0" index="0" speed="3.65" length="4.67" shape="98.40,100.00 99.20,98.80 100.00,98.40 100.80,98.80 101.60,100.00"/>
    </edge>
    <edge id=":B2_0" function="internal">
        <lane id=":B2_0_0" index="0" speed="13.89" length="14.40" shape="98.40,207.20 98.40,192.80"/>
    </edge>
    <edge id=":B2_1" function="internal">
        <lane id=":B2_1_0" index="0" speed="13.89" length="14.40" shape="107.20,201.60 92.80,201.60"/>
    </edge>
    <edge id=":B2_2" function="internal">
        <lane id=":B2_2_0" index="0" speed="13.89" length="14.40" shape="101.60,192.80 101.60,207.20"/>
    </edge>
    <edge id=":B2_3" function="internal">
        <lane id=":B2_3_0" index="0" speed="13.89" length="14.40" shape="92.80,198.40 107.20,198.40"/>
    </edge>
    <edge id=":B3_0" function="internal">
        <lane id=":B3_0_0" index="0" speed="3.65" length="4.67" shape="101.60,300.00 100.80,301.20 100.00,301.60 99.20,301.20 98.40,300.00"/>
    </edge>
    <edge id=":C2_0" function="internal">
        <lane id=":C2_0_0" index="0" speed="3.65" length="4.67" shape="200.00,198.40 201.20,199.20 201.60,200.00 201.20,200.80 200.00,201.60"/>
    </edge>

    <edge id="A2B2" from="A2" to="B2" priority="-1">
        <lane id="A2B2_0" index="0" speed="13.89" length="92.80" shape="0.00,198.40 92.80,198.40"/>
    </edge>
    <edge id="B1B2" from="B1" to="B2" priority="-1">
        <lane id="B1B2_0" index="0" speed="13.89" length="92.80" shape="101.60,100.00 101.60,192.80"/>
    </edge>
    <edge id="B2A2" from="B2" to="A2" priority="-1">
        <lane id="B2A2_0" index="0" speed="13.89" length="92.80" shape="92.80,201.60 0.00,201.60"/>
    </edge>
    <edge id="B2B1" from="B2" to="B1" priority="-1">
        <lane id="B2B1_0" index="0" speed="13.89" length="92.80" shape="98.40,192.80 98.40,100.00"/>
    </edge>
    <edge id="B2B3" from="B2" to="B3" priority="-1">
        <lane id="B2B3_0" index="0" speed="13.89" length="92.80" shape="101.60,207.20 101.60,300.00"/>
    </edge>
    <edge id="B2C2" from="B2" to="C2" priority="-1">
        <lane id="B2C2_0" index="0" speed="13.89" length="92.80" shape="107.20,198.40 200.00,198.40"/>
    </edge>
    <edge id="B3B2" from="B3" to="B2" priority="-1">
        <lane id="B3B2_0" index="0" speed="13.89" length="92.80" shape="98.40,300.00 98.40,207.20"/>
    </edge>
    <edge id="C2B2" from="C2" to="B2" priority="-1">
        <lane id="C2B2_0" index="0" speed="13.89" length="92.80" shape="200.00,201.60 107.20,201.60"/>
    </edge>

    <tlLogic id="B2" type="static" programID="0" offset="0">
        <phase duration="42" state="GrGr"/>
        <phase duration="3"  state="yryr"/>
        <phase duration="42" state="rGrG"/>
        <phase duration="3"  state="ryry"/>
    </tlLogic>

    <junction id="A2" type="priority" x="0.00" y="200.00" incLanes="B2A2_0" intLanes=":A2_0_0" shape="0.00,200.00 0.00,203.20 0.00,200.00">
        <request index="0" response="0" foes="0" cont="0"/>
    </junction>
    <junction id="B1" type="priority" x="100.00" y="100.00" incLanes="B2B1_0" intLanes=":B1_0_0" shape="100.00,100.00 96.80,100.00 100.00,100.00">
        <request index="0" response="0" foes="0" cont="0"/>
    </junction>
    <junction id="B2" type="traffic_light" x="100.00" y="200.00" incLanes="B3B2_0 C2B2_0 B1B2_0 A2B2_0" intLanes=":B2_0_0 :B2_1_0 :B2_2_0 :B2_3_0" shape="96.80,207.20 103.20,207.20 103.64,204.98 104.20,204.20 104.98,203.64 105.98,203.31 107.20,203.20 107.20,196.80 104.98,196.36 104.20,195.80 103.64,195.02 103.31,194.02 103.20,192.80 96.80,192.80 96.36,195.02 95.80,195.80 95.02,196.36 94.02,196.69 92.80,196.80 92.80,203.20 95.02,203.64 95.80,204.20 96.36,204.98 96.69,205.98">
        <request index="0" response="0000" foes="1010" cont="0"/>
        <request index="1" response="0101" foes="0101" cont="0"/>
        <request index="2" response="0000" foes="1010" cont="0"/>
        <request index="3" response="0101" foes="0101" cont="0"/>
    </junction>
    <junction id="B3" type="priority" x="100.00" y="300.00" incLanes="B2B3_0" intLanes=":B3_0_0" shape="100.00,300.00 103.20,300.00 100.00,300.00">
        <request index="0" response="0" foes="0" cont="0"/>
    </junction>
    <junction id="C2" type="priority" x="200.00" y="200.00" incLanes="B2C2_0" intLanes=":C2_0_0" shape="200.00,200.00 200.00,196.80 200.00,200.00">
        <request index="0" response="0" foes="0" cont="0"/>
    </junction>

    <connection from="A2B2" to="B2C2" fromLane="0" toLane="0" via=":B2_3_0" tl="B2" linkIndex="3" dir="s" state="o"/>
    <connection from="B1B2" to="B2B3" fromLane="0" toLane="0" via=":B2_2_0" tl="B2" linkIndex="2" dir="s" state="O"/>
    <connection from="B2A2" to="A2B2" fromLane="0" toLane="0" via=":A2_0_0" dir="t" state="M"/>
    <connection from="B2B1" to="B1B2" fromLane="0" toLane="0" via=":B1_0_0" dir="t" state="M"/>
    <connection from="B2B3" to="B3B2" fromLane="0" toLane="0" via=":B3_0_0" dir="t" state="M"/>
    <connection from="B2C2" to="C2B2" fromLane="0" toLane="0" via=":C2_0_0" dir="t" state="M"/>
    <connection from="B3B2" to="B2B1" fromLane="0" toLane="0" via=":B2_0_0" tl="B2" linkIndex="0" dir="s" state="O"/>
    <connection from="C2B2" to="B2A2" fromLane="0" toLane="0" via=":B2_1_0" tl="B2" linkIndex="1" dir="s" state="o"/>

    <connection from=":A2_0" to="A2B2" fromLane="0" toLane="0" dir="t" state="M"/>
    <connection from=":B1_0" to="B1B2" fromLane="0" toLane="0" dir="t" state="M"/>
    <connection from=":B2_0" to="B2B1" fromLane="0" toLane="0" dir="s" state="M"/>
    <connection from=":B2_1" to="B2A2" fromLane="0" toLane="0" dir="s" state="M"/>
    <connection from=":B2_2" to="B2B3" fromLane="0" toLane="0" dir="s" state="M"/>
    <connection from=":B2_3" to="B2C2" fromLane="0" toLane="0" dir="s" state="M"/>
    <connection from=":B3_0" to="B3B2" fromLane="0" toLane="0" dir="t" state="M"/>
    <connection from=":C2_0" to="C2B2" fromLane="0" toLane="0" dir="t" state="M"/>

</net>
